
 OpenBabel12031710493D

 28 26  0  0  0  0  0  0  0  0999 V2000
   -0.5212    1.3237    0.6252 C   0  0  0  0  0  0  0  0  0  0  0  0
    0.6609    1.4065   -0.0726 C   0  0  0  0  0  0  0  0  0  0  0  0
   -1.4226   -0.5821    0.2370 C   0  0  0  0  0  0  0  0  0  0  0  0
   -0.3772   -1.4075    0.5752 C   0  0  0  0  0  0  0  0  0  0  0  0
    0.8313   -1.3228   -0.1382 C   0  0  0  0  0  0  0  0  0  0  0  0
    0.9502   -0.4157   -1.1637 C   0  0  0  0  0  0  0  0  0  0  0  0
   -1.4098    1.8463    0.2717 H   0  0  0  0  0  0  0  0  0  0  0  0
   -0.5176    1.1452    1.6997 H   0  0  0  0  0  0  0  0  0  0  0  0
    0.7229    1.9958   -0.9872 H   0  0  0  0  0  0  0  0  0  0  0  0
    1.6149    1.2946    0.4408 H   0  0  0  0  0  0  0  0  0  0  0  0
   -1.5556   -0.2648   -0.8038 H   0  0  0  0  0  0  0  0  0  0  0  0
   -2.3277   -0.5452    0.8379 H   0  0  0  0  0  0  0  0  0  0  0  0
    1.9030   -0.2486   -1.6597 H   0  0  0  0  0  0  0  0  0  0  0  0
    0.0729   -0.1506   -1.7652 H   0  0  0  0  0  0  0  0  0  0  0  0
   -0.4164   -2.0203    1.4817 H   0  0  0  0  0  0  0  0  0  0  0  0
    1.7866   -2.4840   -0.3664 C   0  0  0  0  0  0  0  0  0  0  0  0
    1.8452   -3.6230    0.6223 C   0  0  0  0  0  0  0  0  0  0  0  0
    2.8077   -2.1015   -0.5295 H   0  0  0  0  0  0  0  0  0  0  0  0
    1.4902   -2.9365   -1.3278 H   0  0  0  0  0  0  0  0  0  0  0  0
    2.4689   -3.1750    1.9257 C   0  0  0  0  0  0  0  0  0  0  0  0
    2.4496   -4.4301    0.1850 H   0  0  0  0  0  0  0  0  0  0  0  0
    0.8392   -4.0475    0.7765 H   0  0  0  0  0  0  0  0  0  0  0  0
    3.5202   -2.8948    1.7501 H   0  0  0  0  0  0  0  0  0  0  0  0
    2.3973   -4.2749    2.9573 C   0  0  0  0  0  0  0  0  0  0  0  0
    1.9630   -2.2815    2.3084 H   0  0  0  0  0  0  0  0  0  0  0  0
    2.9795   -5.1466    2.6355 H   0  0  0  0  0  0  0  0  0  0  0  0
    1.3557   -4.5954    3.1010 H   0  0  0  0  0  0  0  0  0  0  0  0
    2.7854   -3.9248    3.9102 H   0  0  0  0  0  0  0  0  0  0  0  0
  1  8  1  0  0  0  0
  2 10  1  0  0  0  0
  2  1  2  0  0  0  0
  3  4  2  0  0  0  0
  3 12  1  0  0  0  0
  4 15  1  0  0  0  0
  5  4  1  0  0  0  0
  5 16  1  0  0  0  0
  6  5  2  0  0  0  0
  7  1  1  0  0  0  0
  9  2  1  0  0  0  0
 11  3  1  0  0  0  0
 13  6  1  0  0  0  0
 14  6  1  0  0  0  0
 16 17  1  0  0  0  0
 16 18  1  0  0  0  0
 16 19  1  0  0  0  0
 17 20  1  0  0  0  0
 17 21  1  0  0  0  0
 17 22  1  0  0  0  0
 20 23  1  0  0  0  0
 20 24  1  0  0  0  0
 20 25  1  0  0  0  0
 24 26  1  0  0  0  0
 24 27  1  0  0  0  0
 24 28  1  0  0  0  0
M  END
