Diels_Alder1_small.log
 OpenBabel12031710083D

 16 14  0  0  0  0  0  0  0  0999 V2000
   -0.4942    1.3697    0.6362 C   0  0  0  0  0  0  0  0  0  0  0  0
    0.7176    1.3942   -0.0201 C   0  0  0  0  0  0  0  0  0  0  0  0
   -1.4182   -0.5645    0.2922 C   0  0  0  0  0  0  0  0  0  0  0  0
   -0.3678   -1.3997    0.5820 C   0  0  0  0  0  0  0  0  0  0  0  0
    0.8155   -1.3093   -0.1720 C   0  0  0  0  0  0  0  0  0  0  0  0
    0.9097   -0.3751   -1.1775 C   0  0  0  0  0  0  0  0  0  0  0  0
   -1.7685    2.3118   -0.0273 Cl  0  0  0  0  0  0  0  0  0  0  0  0
   -0.5650    1.1980    1.7176 H   0  0  0  0  0  0  0  0  0  0  0  0
    0.8545    2.0245   -0.8997 H   0  0  0  0  0  0  0  0  0  0  0  0
    1.6354    1.1984    0.5328 H   0  0  0  0  0  0  0  0  0  0  0  0
   -1.5839   -0.2231   -0.7371 H   0  0  0  0  0  0  0  0  0  0  0  0
   -2.2995   -0.5199    0.9271 H   0  0  0  0  0  0  0  0  0  0  0  0
    1.6940   -1.8796    0.1479 H   0  0  0  0  0  0  0  0  0  0  0  0
    1.8457   -0.2153   -1.7077 H   0  0  0  0  0  0  0  0  0  0  0  0
    0.0145   -0.0838   -1.7405 H   0  0  0  0  0  0  0  0  0  0  0  0
   -0.3806   -2.0311    1.4766 H   0  0  0  0  0  0  0  0  0  0  0  0
  1  8  1  0  0  0  0
  2 10  1  0  0  0  0
  2  1  2  0  0  0  0
  3  4  2  0  0  0  0
  3 12  1  0  0  0  0
  4 16  1  0  0  0  0
  5 13  1  0  0  0  0
  5  4  1  0  0  0  0
  6  5  2  0  0  0  0
  7  1  1  0  0  0  0
  9  2  1  0  0  0  0
 11  3  1  0  0  0  0
 14  6  1  0  0  0  0
 15  6  1  0  0  0  0
M  END
$$$$
